/*---------------------------------------------------------------------------*\
| =========                 |                                                 |
| \\      /  F ield         | OpenFOAM: The Open Source CFD Toolbox           |
|  \\    /   O peration     | Version:  2206                                  |
|   \\  /    A nd           | Website:  www.openfoam.com                      |
|    \\/     M anipulation  |                                                 |
\*---------------------------------------------------------------------------*/
Build  : _8993af73-20221106 OPENFOAM=2206 patch=221104 version=2206
Arch   : "LSB;label=32;scalar=64"
Exec   : simpleFoam
Date   : Dec 27 2022
Time   : 19:39:11
Host   : hydra
PID    : 604508
I/O    : uncollated
Case   : /home/tryfonas/data/Uni/Semester9/Flight_Dynamics/Software/hermes/Elevator/Reynolds_3.526e04
nProcs : 1
trapFpe: Floating point exception trapping enabled (FOAM_SIGFPE).
fileModificationChecking : Monitoring run-time modified files using timeStampMaster (fileModificationSkew 5, maxFileModificationPolls 20)
allowSystemOperations : Allowing user-supplied system call operations

// * * * * * * * * * * * * * * * * * * * * * * * * * * * * * * * * * * * * * //
Create time

/*---------------------------------------------------------------------------*\
| =========                 |                                                 |
| \\      /  F ield         | OpenFOAM: The Open Source CFD Toolbox           |
|  \\    /   O peration     | Version:  2206                                  |
|   \\  /    A nd           | Website:  www.openfoam.com                      |
|    \\/     M anipulation  |                                                 |
\*---------------------------------------------------------------------------*/
Build  : _8993af73-20221106 OPENFOAM=2206 patch=221104 version=2206
Arch   : "LSB;label=32;scalar=64"
Exec   : simpleFoam
Date   : Dec 27 2022
Time   : 19:39:14
Host   : hydra
PID    : 605023
I/O    : uncollated
Case   : /home/tryfonas/data/Uni/Semester9/Flight_Dynamics/Software/hermes/Elevator/Reynolds_3.526e04
nProcs : 1
trapFpe: Floating point exception trapping enabled (FOAM_SIGFPE).
fileModificationChecking : Monitoring run-time modified files using timeStampMaster (fileModificationSkew 5, maxFileModificationPolls 20)
allowSystemOperations : Allowing user-supplied system call operations

// * * * * * * * * * * * * * * * * * * * * * * * * * * * * * * * * * * * * * //
Create time

/*---------------------------------------------------------------------------*\
| =========                 |                                                 |
| \\      /  F ield         | OpenFOAM: The Open Source CFD Toolbox           |
|  \\    /   O peration     | Version:  2206                                  |
|   \\  /    A nd           | Website:  www.openfoam.com                      |
|    \\/     M anipulation  |                                                 |
\*---------------------------------------------------------------------------*/
Build  : _8993af73-20221106 OPENFOAM=2206 patch=221104 version=2206
Arch   : "LSB;label=32;scalar=64"
Exec   : simpleFoam
Date   : Dec 27 2022
Time   : 19:39:15
Host   : hydra
PID    : 605436
I/O    : uncollated
Case   : /home/tryfonas/data/Uni/Semester9/Flight_Dynamics/Software/hermes/Elevator/Reynolds_3.526e04
nProcs : 1
trapFpe: Floating point exception trapping enabled (FOAM_SIGFPE).
fileModificationChecking : Monitoring run-time modified files using timeStampMaster (fileModificationSkew 5, maxFileModificationPolls 20)
allowSystemOperations : Allowing user-supplied system call operations

// * * * * * * * * * * * * * * * * * * * * * * * * * * * * * * * * * * * * * //
Create time

/*---------------------------------------------------------------------------*\
| =========                 |                                                 |
| \\      /  F ield         | OpenFOAM: The Open Source CFD Toolbox           |
|  \\    /   O peration     | Version:  2206                                  |
|   \\  /    A nd           | Website:  www.openfoam.com                      |
|    \\/     M anipulation  |                                                 |
\*---------------------------------------------------------------------------*/
Build  : _8993af73-20221106 OPENFOAM=2206 patch=221104 version=2206
Arch   : "LSB;label=32;scalar=64"
Exec   : simpleFoam
Date   : Dec 27 2022
Time   : 19:39:17
Host   : hydra
PID    : 605863
I/O    : uncollated
Case   : /home/tryfonas/data/Uni/Semester9/Flight_Dynamics/Software/hermes/Elevator/Reynolds_3.526e04
nProcs : 1
trapFpe: Floating point exception trapping enabled (FOAM_SIGFPE).
fileModificationChecking : Monitoring run-time modified files using timeStampMaster (fileModificationSkew 5, maxFileModificationPolls 20)
allowSystemOperations : Allowing user-supplied system call operations

// * * * * * * * * * * * * * * * * * * * * * * * * * * * * * * * * * * * * * //
Create time

/*---------------------------------------------------------------------------*\
| =========                 |                                                 |
| \\      /  F ield         | OpenFOAM: The Open Source CFD Toolbox           |
|  \\    /   O peration     | Version:  2206                                  |
|   \\  /    A nd           | Website:  www.openfoam.com                      |
|    \\/     M anipulation  |                                                 |
\*---------------------------------------------------------------------------*/
Build  : _8993af73-20221106 OPENFOAM=2206 patch=221104 version=2206
Arch   : "LSB;label=32;scalar=64"
Exec   : simpleFoam
Date   : Dec 27 2022
Time   : 19:39:18
Host   : hydra
PID    : 606322
I/O    : uncollated
Case   : /home/tryfonas/data/Uni/Semester9/Flight_Dynamics/Software/hermes/Elevator/Reynolds_3.526e04
nProcs : 1
trapFpe: Floating point exception trapping enabled (FOAM_SIGFPE).
fileModificationChecking : Monitoring run-time modified files using timeStampMaster (fileModificationSkew 5, maxFileModificationPolls 20)
allowSystemOperations : Allowing user-supplied system call operations

// * * * * * * * * * * * * * * * * * * * * * * * * * * * * * * * * * * * * * //
Create time

/*---------------------------------------------------------------------------*\
| =========                 |                                                 |
| \\      /  F ield         | OpenFOAM: The Open Source CFD Toolbox           |
|  \\    /   O peration     | Version:  2206                                  |
|   \\  /    A nd           | Website:  www.openfoam.com                      |
|    \\/     M anipulation  |                                                 |
\*---------------------------------------------------------------------------*/
Build  : _8993af73-20221106 OPENFOAM=2206 patch=221104 version=2206
Arch   : "LSB;label=32;scalar=64"
Exec   : simpleFoam
Date   : Dec 27 2022
Time   : 19:39:20
Host   : hydra
PID    : 606737
I/O    : uncollated
Case   : /home/tryfonas/data/Uni/Semester9/Flight_Dynamics/Software/hermes/Elevator/Reynolds_3.526e04
nProcs : 1
trapFpe: Floating point exception trapping enabled (FOAM_SIGFPE).
fileModificationChecking : Monitoring run-time modified files using timeStampMaster (fileModificationSkew 5, maxFileModificationPolls 20)
allowSystemOperations : Allowing user-supplied system call operations

// * * * * * * * * * * * * * * * * * * * * * * * * * * * * * * * * * * * * * //
Create time

/*---------------------------------------------------------------------------*\
| =========                 |                                                 |
| \\      /  F ield         | OpenFOAM: The Open Source CFD Toolbox           |
|  \\    /   O peration     | Version:  2206                                  |
|   \\  /    A nd           | Website:  www.openfoam.com                      |
|    \\/     M anipulation  |                                                 |
\*---------------------------------------------------------------------------*/
Build  : _8993af73-20221106 OPENFOAM=2206 patch=221104 version=2206
Arch   : "LSB;label=32;scalar=64"
Exec   : simpleFoam
Date   : Dec 27 2022
Time   : 19:39:21
Host   : hydra
PID    : 607153
I/O    : uncollated
Case   : /home/tryfonas/data/Uni/Semester9/Flight_Dynamics/Software/hermes/Elevator/Reynolds_3.526e04
nProcs : 1
trapFpe: Floating point exception trapping enabled (FOAM_SIGFPE).
fileModificationChecking : Monitoring run-time modified files using timeStampMaster (fileModificationSkew 5, maxFileModificationPolls 20)
allowSystemOperations : Allowing user-supplied system call operations

// * * * * * * * * * * * * * * * * * * * * * * * * * * * * * * * * * * * * * //
Create time

/*---------------------------------------------------------------------------*\
| =========                 |                                                 |
| \\      /  F ield         | OpenFOAM: The Open Source CFD Toolbox           |
|  \\    /   O peration     | Version:  2206                                  |
|   \\  /    A nd           | Website:  www.openfoam.com                      |
|    \\/     M anipulation  |                                                 |
\*---------------------------------------------------------------------------*/
Build  : _8993af73-20221106 OPENFOAM=2206 patch=221104 version=2206
Arch   : "LSB;label=32;scalar=64"
Exec   : simpleFoam
Date   : Dec 27 2022
Time   : 19:39:23
Host   : hydra
PID    : 607665
I/O    : uncollated
Case   : /home/tryfonas/data/Uni/Semester9/Flight_Dynamics/Software/hermes/Elevator/Reynolds_3.526e04
nProcs : 1
trapFpe: Floating point exception trapping enabled (FOAM_SIGFPE).
fileModificationChecking : Monitoring run-time modified files using timeStampMaster (fileModificationSkew 5, maxFileModificationPolls 20)
allowSystemOperations : Allowing user-supplied system call operations

// * * * * * * * * * * * * * * * * * * * * * * * * * * * * * * * * * * * * * //
Create time

/*---------------------------------------------------------------------------*\
| =========                 |                                                 |
| \\      /  F ield         | OpenFOAM: The Open Source CFD Toolbox           |
|  \\    /   O peration     | Version:  2206                                  |
|   \\  /    A nd           | Website:  www.openfoam.com                      |
|    \\/     M anipulation  |                                                 |
\*---------------------------------------------------------------------------*/
Build  : _8993af73-20221106 OPENFOAM=2206 patch=221104 version=2206
Arch   : "LSB;label=32;scalar=64"
Exec   : simpleFoam
Date   : Dec 27 2022
Time   : 19:39:24
Host   : hydra
PID    : 608081
I/O    : uncollated
Case   : /home/tryfonas/data/Uni/Semester9/Flight_Dynamics/Software/hermes/Elevator/Reynolds_3.526e04
nProcs : 1
trapFpe: Floating point exception trapping enabled (FOAM_SIGFPE).
fileModificationChecking : Monitoring run-time modified files using timeStampMaster (fileModificationSkew 5, maxFileModificationPolls 20)
allowSystemOperations : Allowing user-supplied system call operations

// * * * * * * * * * * * * * * * * * * * * * * * * * * * * * * * * * * * * * //
Create time

/*---------------------------------------------------------------------------*\
| =========                 |                                                 |
| \\      /  F ield         | OpenFOAM: The Open Source CFD Toolbox           |
|  \\    /   O peration     | Version:  2206                                  |
|   \\  /    A nd           | Website:  www.openfoam.com                      |
|    \\/     M anipulation  |                                                 |
\*---------------------------------------------------------------------------*/
Build  : _8993af73-20221106 OPENFOAM=2206 patch=221104 version=2206
Arch   : "LSB;label=32;scalar=64"
Exec   : simpleFoam
Date   : Dec 27 2022
Time   : 19:39:26
Host   : hydra
PID    : 608498
I/O    : uncollated
Case   : /home/tryfonas/data/Uni/Semester9/Flight_Dynamics/Software/hermes/Elevator/Reynolds_3.526e04
nProcs : 1
trapFpe: Floating point exception trapping enabled (FOAM_SIGFPE).
fileModificationChecking : Monitoring run-time modified files using timeStampMaster (fileModificationSkew 5, maxFileModificationPolls 20)
allowSystemOperations : Allowing user-supplied system call operations

// * * * * * * * * * * * * * * * * * * * * * * * * * * * * * * * * * * * * * //
Create time

/*---------------------------------------------------------------------------*\
| =========                 |                                                 |
| \\      /  F ield         | OpenFOAM: The Open Source CFD Toolbox           |
|  \\    /   O peration     | Version:  2206                                  |
|   \\  /    A nd           | Website:  www.openfoam.com                      |
|    \\/     M anipulation  |                                                 |
\*---------------------------------------------------------------------------*/
Build  : _8993af73-20221106 OPENFOAM=2206 patch=221104 version=2206
Arch   : "LSB;label=32;scalar=64"
Exec   : simpleFoam
Date   : Dec 27 2022
Time   : 19:39:28
Host   : hydra
PID    : 608959
I/O    : uncollated
Case   : /home/tryfonas/data/Uni/Semester9/Flight_Dynamics/Software/hermes/Elevator/Reynolds_3.526e04
nProcs : 1
trapFpe: Floating point exception trapping enabled (FOAM_SIGFPE).
fileModificationChecking : Monitoring run-time modified files using timeStampMaster (fileModificationSkew 5, maxFileModificationPolls 20)
allowSystemOperations : Allowing user-supplied system call operations

// * * * * * * * * * * * * * * * * * * * * * * * * * * * * * * * * * * * * * //
Create time

/*---------------------------------------------------------------------------*\
| =========                 |                                                 |
| \\      /  F ield         | OpenFOAM: The Open Source CFD Toolbox           |
|  \\    /   O peration     | Version:  2206                                  |
|   \\  /    A nd           | Website:  www.openfoam.com                      |
|    \\/     M anipulation  |                                                 |
\*---------------------------------------------------------------------------*/
Build  : _8993af73-20221106 OPENFOAM=2206 patch=221104 version=2206
Arch   : "LSB;label=32;scalar=64"
Exec   : simpleFoam
Date   : Dec 27 2022
Time   : 19:39:29
Host   : hydra
PID    : 609419
I/O    : uncollated
Case   : /home/tryfonas/data/Uni/Semester9/Flight_Dynamics/Software/hermes/Elevator/Reynolds_3.526e04
nProcs : 1
trapFpe: Floating point exception trapping enabled (FOAM_SIGFPE).
fileModificationChecking : Monitoring run-time modified files using timeStampMaster (fileModificationSkew 5, maxFileModificationPolls 20)
allowSystemOperations : Allowing user-supplied system call operations

// * * * * * * * * * * * * * * * * * * * * * * * * * * * * * * * * * * * * * //
Create time

/*---------------------------------------------------------------------------*\
| =========                 |                                                 |
| \\      /  F ield         | OpenFOAM: The Open Source CFD Toolbox           |
|  \\    /   O peration     | Version:  2206                                  |
|   \\  /    A nd           | Website:  www.openfoam.com                      |
|    \\/     M anipulation  |                                                 |
\*---------------------------------------------------------------------------*/
Build  : _8993af73-20221106 OPENFOAM=2206 patch=221104 version=2206
Arch   : "LSB;label=32;scalar=64"
Exec   : simpleFoam
Date   : Dec 27 2022
Time   : 19:39:31
Host   : hydra
PID    : 609848
I/O    : uncollated
Case   : /home/tryfonas/data/Uni/Semester9/Flight_Dynamics/Software/hermes/Elevator/Reynolds_3.526e04
nProcs : 1
trapFpe: Floating point exception trapping enabled (FOAM_SIGFPE).
fileModificationChecking : Monitoring run-time modified files using timeStampMaster (fileModificationSkew 5, maxFileModificationPolls 20)
allowSystemOperations : Allowing user-supplied system call operations

// * * * * * * * * * * * * * * * * * * * * * * * * * * * * * * * * * * * * * //
Create time

